cnpj=45.987.005/0224-00
nomeFantasia=DPASCHOAL 224 TELEMACO BORBA                 
razaoSocial=COMERCIAL AUTOMOTIVA LTDA
uf=PR
cidade=Telêmaco Borba
geoLocation=
