cnpj=75.587.915/0133-94
nomeFantasia=MÓVEIS ROMERA- 98
razaoSocial=MÓVEIS ROMERA LTDA - TELEMACO BORBA
uf=PR
cidade=Telêmaco Borba
geoLocation=
